<routes>
            <vType accel="3.0" vClass="passenger" decel="4.5" id="standard_car" length="5.0" minGap="2.5" maxSpeed="35" sigma="0.5" color="0,0,1" />
            <vType accel="4.5" vClass="emergency" decel="7.5" id="emergency_car" length="7.0" minGap="2.5" maxSpeed="50" sigma="1" color="1,0,1" />
            <vType accel="4.0" vClass="bus" decel="7.5" id="bus" length="10.0" minGap="2.5" maxSpeed="45" sigma="1" color="1,1,1" />
            <vType accel="2.0" vClass="trailer" decel="2.5" id="trailer" length="15.0" minGap="2.5" maxSpeed="30" sigma="0.5" color="0,1,1" />
            
            <route id="W_E" edges="WOUT W2TL TL2E EIN"/>
            
            <route id="W_S_E" edges="WOUT W2S S2E EIN"/>
            <route id="W_N_E" edges="WOUT W2N N2TL TL2E EIN"/>
            
             <route id="W_N" edges="WOUT W2N NIN"/>
            <route id="W_S_N" edges="WOUT W2S S2TL TL2N NIN"/>
            <route id="W_E_N" edges="WOUT W2TL TL2E E2N NIN"/>
            
             <route id="W_S" edges="WOUT W2S SIN"/>
            <route id="W_N_S" edges="WOUT W2N N2TL TL2S SIN"/>
            <route id="W_E_S" edges="WOUT W2TL TL2S SIN"/>
            
            
            <route id="S_N" edges="SOUT S2TL TL2N NIN"/>
            <route id="S_W_N" edges="SOUT S2W W2N NIN"/>
            <route id="S_E_N" edges="SOUT S2E E2TL TL2N NIN"/>
            
             <route id="S_W" edges="SOUT S2W WIN"/>
            <route id="S_N_W" edges="SOUT S2TL TL2N N2W WIN"/>
            <route id="S_E_W" edges="SOUT S2E E2TL TL2W WIN"/>
            
             <route id="S_E" edges="SOUT S2E EIN"/>
            <route id="S_N_E" edges="SOUT S2TL TL2E EIN"/>
            <route id="S_W_E" edges="SOUT S2W W2TL TL2E EIN"/>
            
            
            <route id="E_N" edges="EOUT E2N NIN"/>
            <route id="E_W_N" edges="EOUT E2TL TL2W W2N NIN"/>
            <route id="E_S_N" edges="EOUT E2S S2TL TL2N NIN"/>
            
             <route id="E_W" edges="EOUT E2TL TL2W WIN"/>
            <route id="E_N_W" edges="EOUT E2N N2W WIN"/>
            <route id="E_S_W" edges="EOUT E2S S2TL TL2W WIN"/>
            
             <route id="E_S" edges="EOUT E2S SIN"/>
            <route id="E_N_S" edges="EOUT E2TL TL2S SIN"/>
            <route id="E_W_S" edges="EOUT E2TL TL2W W2S"/>
            
            
            <route id="N_S" edges="NOUT N2TL TL2S SIN"/>
            <route id="N_W_S" edges="NOUT N2W W2S SIN"/>
            <route id="N_E_S" edges="NOUT N2E E2TL TL2S SIN"/>
            
             <route id="N_W" edges="NOUT N2W WIN"/>
            <route id="N_S_W" edges="NOUT N2TL TL2S S2W WIN"/>
            <route id="N_E_W" edges="NOUT N2TL TL2W WIN"/>
            
             <route id="N_E" edges="NOUT N2E EIN"/>
            <route id="N_S_E" edges="NOUT N2TL TL2S S2E EIN"/>
            <route id="N_W_E" edges="NOUT N2W W2TL TL2E EIN"/>
            

            
    <vehicle id="veh_0" type="standard_car" route="S_N" depart="0.0" departLane="2" departSpeed="10" />
    <vehicle id="veh_1" type="standard_car" route="N_W_S" depart="1.0" departLane="0" departSpeed="10" />
    <vehicle id="veh_2" type="standard_car" route="S_W_E" depart="2.0" departLane="3" departSpeed="10" />
    <vehicle id="veh_3" type="bus" route="E_W" depart="3.0" departLane="1" departSpeed="10" />
    <vehicle id="veh_4" type="standard_car" route="E_N" depart="4.0" departLane="0" departSpeed="10" />
    <vehicle id="veh_5" type="standard_car" route="E_W" depart="5.0" departLane="2" departSpeed="10" />
    <vehicle id="veh_6" type="standard_car" route="E_N_S" depart="6.0" departLane="0" departSpeed="10" />
    <vehicle id="veh_7" type="standard_car" route="E_W" depart="7.0" departLane="2" departSpeed="10" />
    <vehicle id="veh_8" type="bus" route="N_S" depart="8.0" departLane="2" departSpeed="10" />
    <vehicle id="veh_9" type="standard_car" route="E_W" depart="9.0" departLane="2" departSpeed="10" />
    <vehicle id="veh_10" type="standard_car" route="S_N" depart="10.0" departLane="2" departSpeed="10" />
    <vehicle id="veh_11" type="standard_car" route="E_W_N" depart="11.0" departLane="1" departSpeed="10" />
    <vehicle id="veh_12" type="standard_car" route="S_N" depart="12.0" departLane="2" departSpeed="10" />
    <vehicle id="veh_13" type="bus" route="N_S" depart="13.0" departLane="2" departSpeed="10" />
    <vehicle id="veh_14" type="standard_car" route="E_N_S" depart="14.0" departLane="0" departSpeed="10" />
    <vehicle id="veh_15" type="bus" route="E_W" depart="15.0" departLane="1" departSpeed="10" />
    <vehicle id="veh_16" type="standard_car" route="E_W_N" depart="16.0" departLane="1" departSpeed="10" />
    <vehicle id="veh_17" type="standard_car" route="E_W" depart="17.0" departLane="2" departSpeed="10" />
    <vehicle id="veh_18" type="standard_car" route="W_N" depart="18.0" departLane="3" departSpeed="10" />
    <vehicle id="veh_19" type="standard_car" route="S_E_W" depart="19.0" departLane="0" departSpeed="10" />
    <vehicle id="veh_20" type="bus" route="E_W" depart="20.0" departLane="1" departSpeed="10" />
    <vehicle id="veh_21" type="standard_car" route="E_S_W" depart="21.0" departLane="3" departSpeed="10" />
    <vehicle id="veh_22" type="bus" route="N_S" depart="22.0" departLane="2" departSpeed="10" />
    <vehicle id="veh_23" type="bus" route="E_W" depart="23.0" departLane="1" departSpeed="10" />
    <vehicle id="veh_24" type="trailer" route="W_E" depart="24.0" departLane="2" departSpeed="10" />
    <vehicle id="veh_25" type="standard_car" route="W_S" depart="25.0" departLane="0" departSpeed="10" />
    <vehicle id="veh_26" type="bus" route="E_W" depart="26.0" departLane="1" departSpeed="10" />
    <vehicle id="veh_27" type="standard_car" route="N_W_S" depart="27.0" departLane="0" departSpeed="10" />
    <vehicle id="veh_28" type="bus" route="E_W" depart="28.0" departLane="1" departSpeed="10" />
    <vehicle id="veh_29" type="standard_car" route="S_E_N" depart="29.0" departLane="0" departSpeed="10" />
    <vehicle id="veh_30" type="standard_car" route="W_S_E" depart="30.0" departLane="0" departSpeed="10" />
    <vehicle id="veh_31" type="bus" route="N_S" depart="31.0" departLane="2" departSpeed="10" />
    <vehicle id="veh_32" type="standard_car" route="E_W" depart="32.0" departLane="2" departSpeed="10" />
    <vehicle id="veh_33" type="bus" route="N_S" depart="33.0" departLane="2" departSpeed="10" />
    <vehicle id="veh_34" type="standard_car" route="N_W_S" depart="34.0" departLane="0" departSpeed="10" />
    <vehicle id="veh_35" type="bus" route="E_W" depart="35.0" departLane="1" departSpeed="10" />
    <vehicle id="veh_36" type="standard_car" route="E_W" depart="36.0" departLane="2" departSpeed="10" />
    <vehicle id="veh_37" type="standard_car" route="N_S_W" depart="37.0" departLane="1" departSpeed="10" />
    <vehicle id="veh_38" type="standard_car" route="W_S" depart="38.0" departLane="0" departSpeed="10" />
    <vehicle id="veh_39" type="standard_car" route="E_W" depart="39.0" departLane="2" departSpeed="10" />
    <vehicle id="veh_40" type="standard_car" route="W_E_N" depart="40.0" departLane="2" departSpeed="10" />
    <vehicle id="veh_41" type="bus" route="N_S" depart="41.0" departLane="2" departSpeed="10" />
    <vehicle id="veh_42" type="bus" route="N_S_E" depart="42.0" departLane="1" departSpeed="10" />
    <vehicle id="veh_43" type="standard_car" route="E_S_W" depart="43.0" departLane="3" departSpeed="10" />
    <vehicle id="veh_44" type="bus" route="N_S" depart="44.0" departLane="2" departSpeed="10" />
    <vehicle id="veh_45" type="bus" route="E_W" depart="45.0" departLane="1" departSpeed="10" />
    <vehicle id="veh_46" type="standard_car" route="W_E" depart="46.0" departLane="1" departSpeed="10" />
    <vehicle id="veh_47" type="standard_car" route="S_W_N" depart="47.0" departLane="3" departSpeed="10" />
    <vehicle id="veh_48" type="bus" route="N_S_E" depart="48.0" departLane="1" departSpeed="10" />
    <vehicle id="veh_49" type="bus" route="E_W" depart="49.0" departLane="1" departSpeed="10" />
    <vehicle id="veh_50" type="trailer" route="W_E" depart="50.0" departLane="2" departSpeed="10" />
    <vehicle id="veh_51" type="emergency_car" route="N_S" depart="51.0" departLane="1" departSpeed="10" />
    <vehicle id="veh_52" type="standard_car" route="W_E" depart="52.0" departLane="1" departSpeed="10" />
    <vehicle id="veh_53" type="standard_car" route="E_N" depart="53.0" departLane="0" departSpeed="10" />
    <vehicle id="veh_54" type="trailer" route="W_E" depart="54.0" departLane="2" departSpeed="10" />
    <vehicle id="veh_55" type="emergency_car" route="N_S" depart="55.0" departLane="1" departSpeed="10" />
    <vehicle id="veh_56" type="standard_car" route="S_N" depart="56.0" departLane="2" departSpeed="10" />
    <vehicle id="veh_57" type="standard_car" route="W_E" depart="57.0" departLane="1" departSpeed="10" />
    <vehicle id="veh_58" type="emergency_car" route="N_S" depart="58.0" departLane="1" departSpeed="10" />
    <vehicle id="veh_59" type="standard_car" route="S_E_N" depart="59.0" departLane="0" departSpeed="10" />
    <vehicle id="veh_60" type="trailer" route="W_S_N" depart="60.0" departLane="0" departSpeed="10" />
    <vehicle id="veh_61" type="trailer" route="W_E" depart="61.0" departLane="2" departSpeed="10" />
    <vehicle id="veh_62" type="emergency_car" route="N_S" depart="62.0" departLane="1" departSpeed="10" />
    <vehicle id="veh_63" type="standard_car" route="N_W_E" depart="63.0" departLane="0" departSpeed="10" />
    <vehicle id="veh_64" type="standard_car" route="S_W" depart="64.0" departLane="3" departSpeed="10" />
    <vehicle id="veh_65" type="standard_car" route="E_W_S" depart="65.0" departLane="1" departSpeed="10" />
    <vehicle id="veh_66" type="standard_car" route="S_N_W" depart="66.0" departLane="1" departSpeed="10" />
    <vehicle id="veh_67" type="bus" route="N_S" depart="67.0" departLane="2" departSpeed="10" />
    <vehicle id="veh_68" type="bus" route="N_S" depart="68.0" departLane="2" departSpeed="10" />
    <vehicle id="veh_69" type="standard_car" route="N_W_S" depart="69.0" departLane="0" departSpeed="10" />
    <vehicle id="veh_70" type="standard_car" route="N_E" depart="70.0" departLane="3" departSpeed="10" />
    <vehicle id="veh_71" type="bus" route="N_S" depart="71.0" departLane="2" departSpeed="10" />
    <vehicle id="veh_72" type="emergency_car" route="S_N_E" depart="72.0" departLane="1" departSpeed="10" />
    <vehicle id="veh_73" type="standard_car" route="E_W_S" depart="73.0" departLane="1" departSpeed="10" />
    <vehicle id="veh_74" type="trailer" route="W_E" depart="74.0" departLane="2" departSpeed="10" />
    <vehicle id="veh_75" type="standard_car" route="W_E" depart="75.0" departLane="1" departSpeed="10" />
    <vehicle id="veh_76" type="standard_car" route="N_S_W" depart="76.0" departLane="1" departSpeed="10" />
    <vehicle id="veh_77" type="bus" route="E_W" depart="77.0" departLane="1" departSpeed="10" />
    <vehicle id="veh_78" type="emergency_car" route="N_S" depart="78.0" departLane="1" departSpeed="10" />
    <vehicle id="veh_79" type="bus" route="E_W" depart="79.0" departLane="1" departSpeed="10" />
    <vehicle id="veh_80" type="standard_car" route="E_N" depart="80.0" departLane="0" departSpeed="10" />
    <vehicle id="veh_81" type="bus" route="E_S" depart="81.0" departLane="3" departSpeed="10" />
    <vehicle id="veh_82" type="emergency_car" route="N_S" depart="82.0" departLane="1" departSpeed="10" />
    <vehicle id="veh_83" type="bus" route="N_S" depart="83.0" departLane="2" departSpeed="10" />
    <vehicle id="veh_84" type="emergency_car" route="N_S" depart="84.0" departLane="1" departSpeed="10" />
    <vehicle id="veh_85" type="emergency_car" route="N_S" depart="85.0" departLane="1" departSpeed="10" />
    <vehicle id="veh_86" type="trailer" route="W_E" depart="86.0" departLane="2" departSpeed="10" />
    <vehicle id="veh_87" type="bus" route="E_W" depart="87.0" departLane="1" departSpeed="10" />
    <vehicle id="veh_88" type="standard_car" route="E_W" depart="88.0" departLane="2" departSpeed="10" />
    <vehicle id="veh_89" type="standard_car" route="E_W" depart="89.0" departLane="2" departSpeed="10" />
    <vehicle id="veh_90" type="bus" route="E_W" depart="90.0" departLane="1" departSpeed="10" />
    <vehicle id="veh_91" type="bus" route="E_W" depart="91.0" departLane="1" departSpeed="10" />
    <vehicle id="veh_92" type="bus" route="E_W" depart="92.0" departLane="1" departSpeed="10" />
    <vehicle id="veh_93" type="standard_car" route="E_W" depart="93.0" departLane="2" departSpeed="10" />
    <vehicle id="veh_94" type="standard_car" route="N_W_S" depart="94.0" departLane="0" departSpeed="10" />
    <vehicle id="veh_95" type="standard_car" route="S_W_N" depart="95.0" departLane="3" departSpeed="10" />
    <vehicle id="veh_96" type="standard_car" route="W_E" depart="96.0" departLane="1" departSpeed="10" />
    <vehicle id="veh_97" type="standard_car" route="W_E" depart="97.0" departLane="1" departSpeed="10" />
    <vehicle id="veh_98" type="emergency_car" route="S_N_E" depart="98.0" departLane="1" departSpeed="10" />
    <vehicle id="veh_99" type="trailer" route="W_E" depart="99.0" departLane="2" departSpeed="10" />
    <vehicle id="veh_100" type="standard_car" route="W_S" depart="100.0" departLane="0" departSpeed="10" />
    <vehicle id="veh_101" type="bus" route="E_W" depart="101.0" departLane="1" departSpeed="10" />
    <vehicle id="veh_102" type="standard_car" route="E_W_N" depart="102.0" departLane="1" departSpeed="10" />
    <vehicle id="veh_103" type="trailer" route="W_E" depart="103.0" departLane="2" departSpeed="10" />
    <vehicle id="veh_104" type="standard_car" route="N_W_E" depart="104.0" departLane="0" departSpeed="10" />
    <vehicle id="veh_105" type="standard_car" route="E_W" depart="105.0" departLane="2" departSpeed="10" />
    <vehicle id="veh_106" type="standard_car" route="S_E" depart="106.0" departLane="0" departSpeed="10" />
    <vehicle id="veh_107" type="bus" route="E_W" depart="107.0" departLane="1" departSpeed="10" />
    <vehicle id="veh_108" type="bus" route="E_S" depart="108.0" departLane="3" departSpeed="10" />
    <vehicle id="veh_109" type="emergency_car" route="W_N_S" depart="109.0" departLane="3" departSpeed="10" />
    <vehicle id="veh_110" type="trailer" route="N_E_S" depart="110.0" departLane="3" departSpeed="10" />
    <vehicle id="veh_111" type="standard_car" route="S_W_N" depart="111.0" departLane="3" departSpeed="10" />
    <vehicle id="veh_112" type="standard_car" route="W_E" depart="112.0" departLane="1" departSpeed="10" />
    <vehicle id="veh_113" type="standard_car" route="W_S" depart="113.0" departLane="0" departSpeed="10" />
    <vehicle id="veh_114" type="bus" route="E_W" depart="114.0" departLane="1" departSpeed="10" />
    <vehicle id="veh_115" type="standard_car" route="E_W" depart="115.0" departLane="2" departSpeed="10" />
    <vehicle id="veh_116" type="standard_car" route="N_E" depart="116.0" departLane="3" departSpeed="10" />
    <vehicle id="veh_117" type="standard_car" route="S_N" depart="117.0" departLane="2" departSpeed="10" />
    <vehicle id="veh_118" type="standard_car" route="E_W" depart="118.0" departLane="2" departSpeed="10" />
    <vehicle id="veh_119" type="standard_car" route="S_N" depart="119.0" departLane="2" departSpeed="10" />
    <vehicle id="veh_120" type="standard_car" route="W_N_E" depart="120.0" departLane="3" departSpeed="10" />
    <vehicle id="veh_121" type="standard_car" route="E_W_S" depart="121.0" departLane="1" departSpeed="10" />
    <vehicle id="veh_122" type="standard_car" route="W_E_N" depart="122.0" departLane="2" departSpeed="10" />
    <vehicle id="veh_123" type="standard_car" route="W_E" depart="123.0" departLane="1" departSpeed="10" />
    <vehicle id="veh_124" type="standard_car" route="E_W" depart="124.0" departLane="2" departSpeed="10" />
    <vehicle id="veh_125" type="bus" route="E_W" depart="125.0" departLane="1" departSpeed="10" />
    <vehicle id="veh_126" type="standard_car" route="W_N" depart="126.0" departLane="3" departSpeed="10" />
    <vehicle id="veh_127" type="trailer" route="W_E" depart="127.0" departLane="2" departSpeed="10" />
    <vehicle id="veh_128" type="trailer" route="W_E" depart="128.0" departLane="2" departSpeed="10" />
    <vehicle id="veh_129" type="bus" route="E_S" depart="129.0" departLane="3" departSpeed="10" />
    <vehicle id="veh_130" type="emergency_car" route="N_W" depart="130.0" departLane="0" departSpeed="10" />
    <vehicle id="veh_131" type="bus" route="E_W" depart="131.0" departLane="1" departSpeed="10" />
    <vehicle id="veh_132" type="standard_car" route="W_E" depart="132.0" departLane="1" departSpeed="10" />
    <vehicle id="veh_133" type="emergency_car" route="N_S" depart="133.0" departLane="1" departSpeed="10" />
    <vehicle id="veh_134" type="trailer" route="W_E" depart="134.0" departLane="2" departSpeed="10" />
    <vehicle id="veh_135" type="standard_car" route="W_N_E" depart="135.0" departLane="3" departSpeed="10" />
    <vehicle id="veh_136" type="emergency_car" route="N_S" depart="136.0" departLane="1" departSpeed="10" />
    <vehicle id="veh_137" type="standard_car" route="N_E_W" depart="137.0" departLane="3" departSpeed="10" />
    <vehicle id="veh_138" type="standard_car" route="N_E" depart="138.0" departLane="3" departSpeed="10" />
    <vehicle id="veh_139" type="standard_car" route="E_W" depart="139.0" departLane="2" departSpeed="10" />
    <vehicle id="veh_140" type="standard_car" route="S_N" depart="140.0" departLane="2" departSpeed="10" />
    <vehicle id="veh_141" type="trailer" route="W_E" depart="141.0" departLane="2" departSpeed="10" />
    <vehicle id="veh_142" type="standard_car" route="S_W_N" depart="142.0" departLane="3" departSpeed="10" />
    <vehicle id="veh_143" type="trailer" route="W_E" depart="143.0" departLane="2" departSpeed="10" />
    <vehicle id="veh_144" type="emergency_car" route="N_S" depart="144.0" departLane="1" departSpeed="10" />
    <vehicle id="veh_145" type="emergency_car" route="N_S" depart="145.0" departLane="1" departSpeed="10" />
    <vehicle id="veh_146" type="standard_car" route="E_W" depart="146.0" departLane="2" departSpeed="10" />
    <vehicle id="veh_147" type="standard_car" route="N_E_W" depart="147.0" departLane="3" departSpeed="10" />
    <vehicle id="veh_148" type="standard_car" route="W_S" depart="148.0" departLane="0" departSpeed="10" />
    <vehicle id="veh_149" type="standard_car" route="W_S" depart="149.0" departLane="0" departSpeed="10" />
    <vehicle id="veh_150" type="standard_car" route="W_E" depart="150.0" departLane="1" departSpeed="10" />
    <vehicle id="veh_151" type="emergency_car" route="N_S" depart="151.0" departLane="1" departSpeed="10" />
    <vehicle id="veh_152" type="standard_car" route="N_W_E" depart="152.0" departLane="0" departSpeed="10" />
    <vehicle id="veh_153" type="standard_car" route="S_E_N" depart="153.0" departLane="0" departSpeed="10" />
    <vehicle id="veh_154" type="bus" route="W_E_S" depart="154.0" departLane="2" departSpeed="10" />
    <vehicle id="veh_155" type="bus" route="N_S" depart="155.0" departLane="2" departSpeed="10" />
    <vehicle id="veh_156" type="trailer" route="W_E" depart="156.0" departLane="2" departSpeed="10" />
    <vehicle id="veh_157" type="bus" route="E_W" depart="157.0" departLane="1" departSpeed="10" />
    <vehicle id="veh_158" type="standard_car" route="E_N_S" depart="158.0" departLane="0" departSpeed="10" />
    <vehicle id="veh_159" type="emergency_car" route="N_S" depart="159.0" departLane="1" departSpeed="10" />
    <vehicle id="veh_160" type="standard_car" route="W_E" depart="160.0" departLane="1" departSpeed="10" />
    <vehicle id="veh_161" type="standard_car" route="S_N" depart="161.0" departLane="2" departSpeed="10" />
    <vehicle id="veh_162" type="trailer" route="W_E" depart="162.0" departLane="2" departSpeed="10" />
    <vehicle id="veh_163" type="trailer" route="W_E" depart="163.0" departLane="2" departSpeed="10" />
    <vehicle id="veh_164" type="emergency_car" route="N_S" depart="164.0" departLane="1" departSpeed="10" />
    <vehicle id="veh_165" type="bus" route="N_S_E" depart="165.0" departLane="1" departSpeed="10" />
    <vehicle id="veh_166" type="trailer" route="W_E" depart="166.0" departLane="2" departSpeed="10" />
    <vehicle id="veh_167" type="standard_car" route="S_W_E" depart="167.0" departLane="3" departSpeed="10" />
    <vehicle id="veh_168" type="standard_car" route="E_W" depart="168.0" departLane="2" departSpeed="10" />
    <vehicle id="veh_169" type="trailer" route="N_E_S" depart="169.0" departLane="3" departSpeed="10" />
    <vehicle id="veh_170" type="bus" route="N_S_E" depart="170.0" departLane="1" departSpeed="10" />
    <vehicle id="veh_171" type="standard_car" route="W_E" depart="171.0" departLane="1" departSpeed="10" />
    <vehicle id="veh_172" type="standard_car" route="S_N" depart="172.0" departLane="2" departSpeed="10" />
    <vehicle id="veh_173" type="bus" route="N_S" depart="173.0" departLane="2" departSpeed="10" />
    <vehicle id="veh_174" type="standard_car" route="S_N" depart="174.0" departLane="2" departSpeed="10" />
    <vehicle id="veh_175" type="standard_car" route="S_N" depart="175.0" departLane="2" departSpeed="10" />
    <vehicle id="veh_176" type="standard_car" route="W_E_N" depart="176.0" departLane="2" departSpeed="10" />
    <vehicle id="veh_177" type="standard_car" route="E_S_W" depart="177.0" departLane="3" departSpeed="10" />
    <vehicle id="veh_178" type="standard_car" route="W_N" depart="178.0" departLane="3" departSpeed="10" />
    <vehicle id="veh_179" type="standard_car" route="S_N" depart="179.0" departLane="2" departSpeed="10" />
    <vehicle id="veh_180" type="standard_car" route="E_W" depart="180.0" departLane="2" departSpeed="10" />
    <vehicle id="veh_181" type="standard_car" route="E_W" depart="181.0" departLane="2" departSpeed="10" />
    <vehicle id="veh_182" type="bus" route="N_S" depart="182.0" departLane="2" departSpeed="10" />
    <vehicle id="veh_183" type="emergency_car" route="N_S" depart="183.0" departLane="1" departSpeed="10" />
    <vehicle id="veh_184" type="standard_car" route="W_E_N" depart="184.0" departLane="2" departSpeed="10" />
    <vehicle id="veh_185" type="bus" route="N_S_E" depart="185.0" departLane="1" departSpeed="10" />
    <vehicle id="veh_186" type="emergency_car" route="N_W" depart="186.0" departLane="0" departSpeed="10" />
    <vehicle id="veh_187" type="standard_car" route="E_S_W" depart="187.0" departLane="3" departSpeed="10" />
    <vehicle id="veh_188" type="standard_car" route="E_S_N" depart="188.0" departLane="3" departSpeed="10" />
    <vehicle id="veh_189" type="standard_car" route="S_N" depart="189.0" departLane="2" departSpeed="10" />
    <vehicle id="veh_190" type="bus" route="E_W" depart="190.0" departLane="1" departSpeed="10" />
    <vehicle id="veh_191" type="bus" route="E_W" depart="191.0" departLane="1" departSpeed="10" />
    <vehicle id="veh_192" type="bus" route="N_S" depart="192.0" departLane="2" departSpeed="10" />
    <vehicle id="veh_193" type="bus" route="E_W" depart="193.0" departLane="1" departSpeed="10" />
    <vehicle id="veh_194" type="standard_car" route="W_E" depart="194.0" departLane="1" departSpeed="10" />
    <vehicle id="veh_195" type="emergency_car" route="N_S" depart="195.0" departLane="1" departSpeed="10" />
    <vehicle id="veh_196" type="standard_car" route="S_W" depart="196.0" departLane="3" departSpeed="10" />
    <vehicle id="veh_197" type="standard_car" route="W_E_N" depart="197.0" departLane="2" departSpeed="10" />
    <vehicle id="veh_198" type="standard_car" route="E_W" depart="198.0" departLane="2" departSpeed="10" />
    <vehicle id="veh_199" type="bus" route="N_S" depart="199.0" departLane="2" departSpeed="10" />
    <vehicle id="veh_200" type="bus" route="E_W" depart="200.0" departLane="1" departSpeed="10" />
    <vehicle id="veh_201" type="standard_car" route="E_W" depart="201.0" departLane="2" departSpeed="10" />
    <vehicle id="veh_202" type="standard_car" route="E_W" depart="202.0" departLane="2" departSpeed="10" />
    <vehicle id="veh_203" type="bus" route="N_S_E" depart="203.0" departLane="1" departSpeed="10" />
    <vehicle id="veh_204" type="standard_car" route="S_N" depart="204.0" departLane="2" departSpeed="10" />
    <vehicle id="veh_205" type="standard_car" route="E_S_W" depart="205.0" departLane="3" departSpeed="10" />
    <vehicle id="veh_206" type="standard_car" route="S_W_E" depart="206.0" departLane="3" departSpeed="10" />
    <vehicle id="veh_207" type="bus" route="N_S" depart="207.0" departLane="2" departSpeed="10" />
    <vehicle id="veh_208" type="standard_car" route="E_W_S" depart="208.0" departLane="1" departSpeed="10" />
    <vehicle id="veh_209" type="bus" route="E_W" depart="209.0" departLane="1" departSpeed="10" />
    <vehicle id="veh_210" type="bus" route="E_S" depart="210.0" departLane="3" departSpeed="10" />
    <vehicle id="veh_211" type="bus" route="N_S" depart="211.0" departLane="2" departSpeed="10" />
    <vehicle id="veh_212" type="emergency_car" route="N_S" depart="212.0" departLane="1" departSpeed="10" />
    <vehicle id="veh_213" type="standard_car" route="S_N" depart="213.0" departLane="2" departSpeed="10" />
    <vehicle id="veh_214" type="standard_car" route="S_N" depart="214.0" departLane="2" departSpeed="10" />
    <vehicle id="veh_215" type="standard_car" route="W_E" depart="215.0" departLane="1" departSpeed="10" />
    <vehicle id="veh_216" type="bus" route="E_W" depart="216.0" departLane="1" departSpeed="10" />
    <vehicle id="veh_217" type="standard_car" route="W_E" depart="217.0" departLane="1" departSpeed="10" />
    <vehicle id="veh_218" type="trailer" route="W_E" depart="218.0" departLane="2" departSpeed="10" />
    <vehicle id="veh_219" type="emergency_car" route="S_N_E" depart="219.0" departLane="1" departSpeed="10" />
    <vehicle id="veh_220" type="standard_car" route="W_E" depart="220.0" departLane="1" departSpeed="10" />
    <vehicle id="veh_221" type="standard_car" route="E_W" depart="221.0" departLane="2" departSpeed="10" />
    <vehicle id="veh_222" type="trailer" route="N_E_S" depart="222.0" departLane="3" departSpeed="10" />
    <vehicle id="veh_223" type="standard_car" route="E_S_N" depart="223.0" departLane="3" departSpeed="10" />
    <vehicle id="veh_224" type="trailer" route="W_E" depart="224.0" departLane="2" departSpeed="10" />
    <vehicle id="veh_225" type="trailer" route="W_E" depart="225.0" departLane="2" departSpeed="10" />
    <vehicle id="veh_226" type="standard_car" route="W_E" depart="226.0" departLane="1" departSpeed="10" />
    <vehicle id="veh_227" type="standard_car" route="S_N" depart="227.0" departLane="2" departSpeed="10" />
    <vehicle id="veh_228" type="standard_car" route="E_S_N" depart="228.0" departLane="3" departSpeed="10" />
    <vehicle id="veh_229" type="bus" route="N_S_E" depart="229.0" departLane="1" departSpeed="10" />
    <vehicle id="veh_230" type="bus" route="N_S" depart="230.0" departLane="2" departSpeed="10" />
    <vehicle id="veh_231" type="standard_car" route="S_N" depart="231.0" departLane="2" departSpeed="10" />
    <vehicle id="veh_232" type="trailer" route="W_S_N" depart="232.0" departLane="0" departSpeed="10" />
    <vehicle id="veh_233" type="bus" route="W_E_S" depart="233.0" departLane="2" departSpeed="10" />
    <vehicle id="veh_234" type="trailer" route="W_E" depart="234.0" departLane="2" departSpeed="10" />
    <vehicle id="veh_235" type="trailer" route="W_S_N" depart="235.0" departLane="0" departSpeed="10" />
    <vehicle id="veh_236" type="bus" route="W_E_S" depart="236.0" departLane="2" departSpeed="10" />
    <vehicle id="veh_237" type="trailer" route="N_E_S" depart="237.0" departLane="3" departSpeed="10" />
    <vehicle id="veh_238" type="standard_car" route="E_N_S" depart="238.0" departLane="0" departSpeed="10" />
    <vehicle id="veh_239" type="standard_car" route="S_W_E" depart="239.0" departLane="3" departSpeed="10" />
    <vehicle id="veh_240" type="standard_car" route="E_W" depart="240.0" departLane="2" departSpeed="10" />
    <vehicle id="veh_241" type="bus" route="E_W" depart="241.0" departLane="1" departSpeed="10" />
    <vehicle id="veh_242" type="standard_car" route="S_N" depart="242.0" departLane="2" departSpeed="10" />
    <vehicle id="veh_243" type="bus" route="E_W" depart="243.0" departLane="1" departSpeed="10" />
    <vehicle id="veh_244" type="standard_car" route="W_S_E" depart="244.0" departLane="0" departSpeed="10" />
    <vehicle id="veh_245" type="standard_car" route="E_W_N" depart="245.0" departLane="1" departSpeed="10" />
    <vehicle id="veh_246" type="standard_car" route="W_S_E" depart="246.0" departLane="0" departSpeed="10" />
    <vehicle id="veh_247" type="bus" route="N_S" depart="247.0" departLane="2" departSpeed="10" />
    <vehicle id="veh_248" type="standard_car" route="S_E_N" depart="248.0" departLane="0" departSpeed="10" />
    <vehicle id="veh_249" type="standard_car" route="E_N" depart="249.0" departLane="0" departSpeed="10" />
    <vehicle id="veh_250" type="bus" route="N_S" depart="250.0" departLane="2" departSpeed="10" />
    <vehicle id="veh_251" type="bus" route="E_W" depart="251.0" departLane="1" departSpeed="10" />
    <vehicle id="veh_252" type="standard_car" route="S_E_N" depart="252.0" departLane="0" departSpeed="10" />
    <vehicle id="veh_253" type="standard_car" route="S_N" depart="253.0" departLane="2" departSpeed="10" />
    <vehicle id="veh_254" type="bus" route="N_S" depart="254.0" departLane="2" departSpeed="10" />
    <vehicle id="veh_255" type="bus" route="E_W" depart="255.0" departLane="1" departSpeed="10" />
    <vehicle id="veh_256" type="bus" route="E_W" depart="256.0" departLane="1" departSpeed="10" />
    <vehicle id="veh_257" type="bus" route="W_E_S" depart="257.0" departLane="2" departSpeed="10" />